Circuit: * C:\Users\desty\Desktop\Projeto ELB\LTspice\Projeto ELB.asc

WARNING: Node NC_01 is floating.

WARNING: Less than two connections to node NC_01.  This node is used by L2.
WARNING: Less than two connections to node NC_02.  This node is used by L3.
Instance "m:m2:1": Width narrower than recommended for a level 3 MOSFET.
Direct Newton iteration failed to find .op point.  (Use ".option noopiter" to skip.)
Starting Gmin stepping
Gmin = 10
Gmin = 1.07374
Gmin = 0.115292
Gmin = 0.0123794
Gmin = 0.00132923
Gmin = 0.000142725
Gmin = 1.5325e-005
Gmin = 1.6455e-006
Gmin = 1.76685e-007
Gmin = 1.89714e-008
Gmin = 2.03704e-009
Gmin = 2.18725e-010
Gmin = 2.34854e-011
Gmin = 2.52173e-012
Gmin = 2.70769e-013
Gmin = 0
Gmin stepping succeeded in finding the operating point.


Date: Mon Apr 26 19:46:56 2021
Total elapsed time: 0.293 seconds.

tnom = 27
temp = 27
method = modified trap
totiter = 5677
traniter = 5150
tranpoints = 2045
accept = 1700
rejected = 345
matrix size = 186
fillins = 213
solver = Normal
Thread vector: 36.0/14.2[4] 14.3/5.5[4] 6.6/2.4[4] 1.1/1.8[1]  2592/500
Matrix Compiler1: 27.32 KB object code size  9.6/5.3/[2.3]
Matrix Compiler2: 19.75 KB object code size  7.2/13.1/[1.5]

